*Heading
** Job name: TMS Model name: Model-1
** Generated by: Abaqus/CAE 2019
*Preprint, echo=NO, model=YES, history=NO, contact=NO
**
** PARTS
**
*Part, name=Part-1
*End Part
**  
**
** ASSEMBLY
**
*Assembly, name=Assembly
**  
*Instance, name=Part-1-1, part=Part-1
*Node
      1,       -2000.,       -1000.,           0.
      2,       -1900.,       -1000.,           0.
      3,       -1800.,       -1000.,           0.
      4,       -1700.,       -1000.,           0.
      5,       -1600.,       -1000.,           0.
      6,       -1500.,       -1000.,           0.
      7,       -1400.,       -1000.,           0.
      8,       -1300.,       -1000.,           0.
      9,       -1200.,       -1000.,           0.
     10,       -1100.,       -1000.,           0.
     11,       -1000.,       -1000.,           0.
     12,        -900.,       -1000.,           0.
     13,        -800.,       -1000.,           0.
     14,        -700.,       -1000.,           0.
     15,        -600.,       -1000.,           0.
     16,        -500.,       -1000.,           0.
     17,        -400.,       -1000.,           0.
     18,        -300.,       -1000.,           0.
     19,        -200.,       -1000.,           0.
     20,        -100.,       -1000.,           0.
** ... 2501 like lines cut
*Element, type=S8R5
  1,    1,    2,   43,   42,  862,  863,  864,  865
  2,    2,    3,   44,   43,  866,  867,  868,  863
  3,    3,    4,   45,   44,  869,  870,  871,  867
  4,    4,    5,   46,   45,  872,  873,  874,  870
  5,    5,    6,   47,   46,  875,  876,  877,  873
  6,    6,    7,   48,   47,  878,  879,  880,  876
  7,    7,    8,   49,   48,  881,  882,  883,  879
  8,    8,    9,   50,   49,  884,  885,  886,  882
  9,    9,   10,   51,   50,  887,  888,  889,  885
 10,   10,   11,   52,   51,  890,  891,  892,  888
 11,   11,   12,   53,   52,  893,  894,  895,  891
 12,   12,   13,   54,   53,  896,  897,  898,  894
 13,   13,   14,   55,   54,  899,  900,  901,  897
 14,   14,   15,   56,   55,  902,  903,  904,  900
 15,   15,   16,   57,   56,  905,  906,  907,  903
 16,   16,   17,   58,   57,  908,  909,  910,  906
 17,   17,   18,   59,   58,  911,  912,  913,  909
 18,   18,   19,   60,   59,  914,  915,  916,  912
 19,   19,   20,   61,   60,  917,  918,  919,  915
 20,   20,   21,   62,   61,  920,  921,  922,  918
** ... 780 like lines cut
*Nset, nset=_PickedSet2, internal, generate
    1,  2521,     1
*Elset, elset=_PickedSet2, internal, generate
   1,  800,    1
** Section: Section-1
*Shell Section, elset=_PickedSet2, material=unidirectional-user
25., 3
*End Instance
**  
*Nset, nset=_PickedSet11, internal, instance=Part-1-1
    1,   41,   42,   82,   83,  123,  124,  164,  165,  205,  206,  246,  247,  287,  288,  328
  329,  369,  370,  410,  411,  451,  452,  492,  493,  533,  534,  574,  575,  615,  616,  656
  657,  697,  698,  738,  739,  779,  780,  820,  821,  861,  865,  981,  985, 1062, 1066, 1143
 1147, 1224, 1228, 1305, 1309, 1386, 1390, 1467, 1471, 1548, 1552, 1629, 1633, 1710, 1714, 1791
 1795, 1872, 1876, 1953, 1957, 2034, 2038, 2115, 2119, 2196, 2200, 2277, 2281, 2358, 2362, 2439
 2443, 2520
*Elset, elset=_PickedSet11, internal, instance=Part-1-1
   1,  40,  41,  80,  81, 120, 121, 160, 161, 200, 201, 240, 241, 280, 281, 320
 321, 360, 361, 400, 401, 440, 441, 480, 481, 520, 521, 560, 561, 600, 601, 640
 641, 680, 681, 720, 721, 760, 761, 800
*Nset, nset=_PickedSet12, internal, instance=Part-1-1
    1,    2,    3,    4,    5,    6,    7,    8,    9,   10,   11,   12,   13,   14,   15,   16
   17,   18,   19,   20,   21,   22,   23,   24,   25,   26,   27,   28,   29,   30,   31,   32
   33,   34,   35,   36,   37,   38,   39,   40,   41,  821,  822,  823,  824,  825,  826,  827
  828,  829,  830,  831,  832,  833,  834,  835,  836,  837,  838,  839,  840,  841,  842,  843
  844,  845,  846,  847,  848,  849,  850,  851,  852,  853,  854,  855,  856,  857,  858,  859
  860,  861,  862,  866,  869,  872,  875,  878,  881,  884,  887,  890,  893,  896,  899,  902
  905,  908,  911,  914,  917,  920,  923,  926,  929,  932,  935,  938,  941,  944,  947,  950
  953,  956,  959,  962,  965,  968,  971,  974,  977,  980, 2442, 2445, 2447, 2449, 2451, 2453
 2455, 2457, 2459, 2461, 2463, 2465, 2467, 2469, 2471, 2473, 2475, 2477, 2479, 2481, 2483, 2485
 2487, 2489, 2491, 2493, 2495, 2497, 2499, 2501, 2503, 2505, 2507, 2509, 2511, 2513, 2515, 2517
 2519, 2521
*Elset, elset=_PickedSet12, internal, instance=Part-1-1
   1,   2,   3,   4,   5,   6,   7,   8,   9,  10,  11,  12,  13,  14,  15,  16
  17,  18,  19,  20,  21,  22,  23,  24,  25,  26,  27,  28,  29,  30,  31,  32
  33,  34,  35,  36,  37,  38,  39,  40, 761, 762, 763, 764, 765, 766, 767, 768
 769, 770, 771, 772, 773, 774, 775, 776, 777, 778, 779, 780, 781, 782, 783, 784
 785, 786, 787, 788, 789, 790, 791, 792, 793, 794, 795, 796, 797, 798, 799, 800
*Elset, elset=__PickedSurf4_SPOS, internal, instance=Part-1-1, generate
   1,  800,    1
*Surface, type=ELEMENT, name=_PickedSurf4, internal
__PickedSurf4_SPOS, SPOS
*End Assembly
** 
** MATERIALS
** 
** This works with Abaqus intrinsic failure criteria for composites such as max. 
** stress and so on
*Material, name=unidirectional
*Elastic, type=LAMINA
133860., 7706., 0.301, 4306., 4306., 2760.
*Fail Stress
1830.,-1096.,   57., -228.,   71.,   -1.,    0.
** 11 properties for Tsai-Wu, some redundant for max. stress and TMS. 
** Note: umatTM.for requires 4 state variables, umars8r5.for (Ex 3.13) uses only 
** 2 of those. ok.  
*Material, name=unidirectional-user
*Transverse Shear
35883., 23000., 0.
*Depvar
      4,
*User Material, constants=11
133860., 7706., 0.301, 4306., 2760., 1830., 1096.,   57.
  228.,   71.,   -1.
** 
** BOUNDARY CONDITIONS
** 
** Name: BC-1 Type: Displacement/Rotation
*Boundary
_PickedSet11, 2, 2
_PickedSet11, 3, 3
** Name: BC-2 Type: Displacement/Rotation
*Boundary
_PickedSet12, 1, 1
_PickedSet12, 3, 3
** ----------------------------------------------------------------
** 
** STEP: Step-1
** 
*Step, name=Step-1, nlgeom=NO
*Static
1., 1., 1e-05, 1.
** 
** LOADS
** 
** Name: Load-1   Type: Pressure
*Dsload
_PickedSurf4, P, 0.03
** 
** OUTPUT REQUESTS
** 
*Restart, write, frequency=0
*Print, solve=NO
** 
** FIELD OUTPUT: F-Output-1
** 
*Output, field
*Node Output
RF, U
*Element Output, directions=YES
CFAILURE, LE, S, SDV
** 
** HISTORY OUTPUT: H-Output-1
** 
*Output, history, variable=PRESELECT
*End Step
