*Heading
** Job name: dflux_experiment Model name: square-3d
** Generated by: Abaqus/CAE 2019
*Preprint, echo=NO, model=NO, history=NO, contact=NO
**
** PARTS
**
*Part, name=merged
*Node
      1, 0.0299999993, 0.00499999989, 0.0250000004
      2, 0.00499999989, 0.00499999989, 0.0250000004
      3, 0.00499999989, 0.00499999989,           0.
      4, 0.0299999993, 0.00499999989,           0.
      5, 0.00499999989, 0.0299999993, 0.0250000004
      6, 0.00499999989, 0.0299999993,           0.
      7, 0.00899999961, 0.0299999993,           0.
      8, 0.0299999993, 0.00899999961,           0.
      9, 0.0299999993, 0.0299999993,           0.
     10, 0.0299999993, 0.0299999993, 0.0209999997
     11, 0.0299999993, 0.0299999993, 0.0250000004
     12, 0.0299999993, 0.0299999993, 0.0289999992
     13, 0.0299999993, 0.0299999993, 0.0599999987
     14, 0.0299999993, -0.0299999993, 0.0599999987
     15, 0.0299999993, -0.0299999993,           0.
     16, 0.0299999993, 0.00100000005,           0.
     17, -0.0299999993, -0.0299999993, 0.0599999987
     18, -0.0299999993, -0.0299999993,           0.
     19, -0.0299999993, 0.0299999993,           0.
     20, 0.00100000005, 0.0299999993,           0.
** ... 3246 like lines cut
*Element, type=C3D4T
   1, 1210, 1211, 1212, 1213
   2, 1210, 1214, 1211, 1213
   3, 1210, 1215, 1216, 1217
   4, 1210, 1212, 1216, 1218
   5, 1210, 1219, 1217, 1220
   6, 1210, 1214, 1219, 1220
   7, 1221, 1212, 1213, 1222
   8, 1223, 1224, 1225, 1226
   9, 1221, 1227, 1223, 1228
  10, 1221, 1228, 1229, 1227
  11, 1221, 1222, 1213, 1229
  12, 1230, 1231, 1219, 1232
  13,  707, 1233, 1234,  618
  14, 1231, 1219, 1235, 1215
  15, 1210, 1231, 1215, 1219
  16, 1231, 1235, 1236, 1237
  17, 1231, 1219, 1238, 1230
  18, 1210, 1239, 1218, 1237
  19, 1216, 1240, 1241, 1242
  20, 1216, 1243, 1244, 1240
** ... 16883 like lines cut
*Nset, nset=_PickedSet6_#2, internal, generate
    1,  3266,     1
*Elset, elset=_PickedSet6_#2, internal, generate
     1,  16903,      1
*Nset, nset=refined_edge
   4,   6,   7,   8,  10,  11,  12,  16,  20,  98,  99, 100, 101, 102, 103, 110
 111, 112, 139, 140, 141, 156, 157, 158, 181, 182, 183
*Elset, elset=refined_edge
  3213,  3277,  3341,  3348,  3845,  3895,  4541,  4553,  4653,  4656,  4681,  5227,  5236,  5682,  5881,  6169
  6982,  7129,  7155,  7156,  7157,  7162, 11123, 11923, 12193, 12199, 12263, 12469, 12495, 13226, 13238, 13463
 13712, 13864, 14073, 14094
*Nset, nset="Edge Seeds-1"
   1,   2,   3,   4,   5,   6,   7,   8,   9,  10,  11,  22,  23,  24,  25,  26
  27,  28,  29,  30,  31,  32,  33,  34,  35,  36,  37,  38,  39,  40,  41,  42
  43,  44,  45,  46,  47,  48,  49,  50,  51,  52,  53,  54,  55,  56,  57,  58
  59,  60,  61,  62,  63,  64,  65,  66,  67,  68,  69,  70,  71,  72,  73,  74
  75,  76,  77,  78,  79,  80,  81,  82,  83,  84,  85,  86,  87,  88,  89,  90
  91,  92,  93,  94,  95,  96,  97, 104, 105, 106, 107, 108, 109, 113, 114, 115
 116, 117, 118, 119, 120, 121, 122, 123, 124, 125, 126, 127, 128, 129, 130, 131
 132, 133, 134, 135, 136, 137, 138
*Elset, elset="Edge Seeds-1"
   192,   214,   291,   343,   408,   702,  1613,  1655,  1660,  1661,  1666,  1708,  1734,  1763,  1771,  1807
  1820,  1827,  1882,  1898,  1904,  1960,  2003,  2012,  2224,  2289,  2323,  2372,  2382,  2409,  2410,  2422
  2427,  2442,  2476,  2528,  2530,  2551,  2565,  2595,  2645,  2713,  2763,  2827,  2837,  2855,  2906,  2908
  2943,  2954,  3012,  3070,  3092,  3153,  3155,  3164,  3165,  3186,  3188,  3242,  3269,  3348,  3473,  3480
  3576,  3638,  3670,  3703,  3777,  3782,  3807,  3829,  3843,  3853,  3919,  3943,  3948,  3949,  3960,  4020
  4036,  4048,  4053,  4065,  4124,  4158,  4237,  4252,  4334,  4526,  4533,  4547,  4559,  4564,  4565,  4584
  4604,  4642,  4644,  4646,  4656,  4660,  4666,  4700,  4740,  4759,  4771,  4795,  4804,  4864,  4895,  4898
  4950,  4956,  4959,  4997,  5025,  5043,  5060,  5067,  5069,  5073,  5079,  5086,  5088,  5109,  5118,  5127
  5132,  5139,  5140,  5141,  5168,  5179,  5188,  5204,  5206,  5245,  5250,  5252,  5266,  5272,  5294,  5412
  5441,  5451,  5480,  5536,  5594,  5620,  5646,  5651,  5706,  5724,  5725,  5744,  5839,  5864,  5866,  5899
  6083,  6102,  6105,  6128,  6191,  6263,  6377,  6384,  6417,  6492,  6546,  6562,  6569,  6585,  6598,  6632
  6703,  6719,  6806,  6828,  6859,  6998,  7043,  7062,  7098,  7156,  7162,  7169,  7173,  7269,  7296,  7313
  7457,  7473,  7517,  7557,  7663,  7668,  7679,  7730,  7916,  7931,  7956,  7983,  7990,  7992,  7997,  8012
  8019,  8518,  9676,  9709,  9712,  9718,  9732,  9788,  9790,  9793,  9796,  9798,  9838,  9862,  9873,  9886
  9888,  9915,  9964,  9980, 10091, 10095, 10152, 10163, 10191, 10221, 10262, 10314, 10370, 10391, 10405, 10412
 10424, 10454, 10476, 10488, 10507, 10526, 10533, 10554, 10573, 10582, 10594, 10603, 10631, 10691, 10750, 10755
 10809, 10825, 10878, 10946, 10950, 11018, 11048, 11079, 11117, 11141, 11153, 11154, 11163, 11193, 11221, 11230
 11237, 11240, 11254, 11261, 11281, 11299, 11313, 11317, 11352, 11390, 11407, 11410, 11412, 11477, 11591, 11629
 11655, 11659, 11665, 11697, 11703, 11711, 11750, 11753, 11809, 11843, 11859, 11860, 11878, 11883, 11936, 11946
 11982, 12009, 12114, 12138, 12156, 12253, 12263, 12373, 12400, 12472, 12756, 12900, 13101, 13112, 13161, 13351
 13402, 13666, 13668, 13784, 13870, 13890, 13987, 14004, 14065, 14093, 14094, 14227, 14555, 14874, 14876, 14928
 14929, 14930, 15105, 15198, 15857, 16416, 16672, 16794, 16802
*Nset, nset=cube
   1,   2,   3,   4,   5,   6,   7,   8,   9,  10,  11,  22,  23,  24,  25,  26
  27,  28,  29,  30,  31,  32,  33,  34,  35,  36,  37,  38,  39,  40,  41,  42
  43,  44,  45,  46,  47,  48,  49,  50,  51,  52,  53,  54,  55,  56,  57,  58
  59,  60,  61,  62,  63,  64,  65,  66,  67,  68,  69,  70,  71,  72,  73,  74
  75,  76,  77,  78,  79,  80,  81,  82,  83,  84,  85,  86,  87,  88,  89,  90
  91,  92,  93,  94,  95,  96,  97, 104, 105, 106, 107, 108, 109, 113, 114, 115
 116, 117, 118, 119, 120, 121, 122, 123, 124, 125, 126, 127, 128, 129, 130, 131
 132, 133, 134, 135, 136, 137, 138
*Elset, elset=cube
   192,   214,   291,   343,   408,   702,  1613,  1655,  1660,  1661,  1666,  1708,  1734,  1763,  1771,  1807
  1820,  1827,  1882,  1898,  1904,  1960,  2003,  2012,  2224,  2289,  2323,  2372,  2382,  2409,  2410,  2422
  2427,  2442,  2476,  2528,  2530,  2551,  2565,  2595,  2645,  2713,  2763,  2827,  2837,  2855,  2906,  2908
  2943,  2954,  3012,  3070,  3092,  3153,  3155,  3164,  3165,  3186,  3188,  3242,  3269,  3348,  3473,  3480
  3576,  3638,  3670,  3703,  3777,  3782,  3807,  3829,  3843,  3853,  3919,  3943,  3948,  3949,  3960,  4020
  4036,  4048,  4053,  4065,  4124,  4158,  4237,  4252,  4334,  4526,  4533,  4547,  4559,  4564,  4565,  4584
  4604,  4642,  4644,  4646,  4656,  4660,  4666,  4700,  4740,  4759,  4771,  4795,  4804,  4864,  4895,  4898
  4950,  4956,  4959,  4997,  5025,  5043,  5060,  5067,  5069,  5073,  5079,  5086,  5088,  5109,  5118,  5127
  5132,  5139,  5140,  5141,  5168,  5179,  5188,  5204,  5206,  5245,  5250,  5252,  5266,  5272,  5294,  5412
  5441,  5451,  5480,  5536,  5594,  5620,  5646,  5651,  5706,  5724,  5725,  5744,  5839,  5864,  5866,  5899
  6083,  6102,  6105,  6128,  6191,  6263,  6377,  6384,  6417,  6492,  6546,  6562,  6569,  6585,  6598,  6632
  6703,  6719,  6806,  6828,  6859,  6998,  7043,  7062,  7098,  7156,  7162,  7169,  7173,  7269,  7296,  7313
  7457,  7473,  7517,  7557,  7663,  7668,  7679,  7730,  7916,  7931,  7956,  7983,  7990,  7992,  7997,  8012
  8019,  8518,  9676,  9709,  9712,  9718,  9732,  9788,  9790,  9793,  9796,  9798,  9838,  9862,  9873,  9886
  9888,  9915,  9964,  9980, 10091, 10095, 10152, 10163, 10191, 10221, 10262, 10314, 10370, 10391, 10405, 10412
 10424, 10454, 10476, 10488, 10507, 10526, 10533, 10554, 10573, 10582, 10594, 10603, 10631, 10691, 10750, 10755
 10809, 10825, 10878, 10946, 10950, 11018, 11048, 11079, 11117, 11141, 11153, 11154, 11163, 11193, 11221, 11230
 11237, 11240, 11254, 11261, 11281, 11299, 11313, 11317, 11352, 11390, 11407, 11410, 11412, 11477, 11591, 11629
 11655, 11659, 11665, 11697, 11703, 11711, 11750, 11753, 11809, 11843, 11859, 11860, 11878, 11883, 11936, 11946
 11982, 12009, 12114, 12138, 12156, 12253, 12263, 12373, 12400, 12472, 12756, 12900, 13101, 13112, 13161, 13351
 13402, 13666, 13668, 13784, 13870, 13890, 13987, 14004, 14065, 14093, 14094, 14227, 14555, 14874, 14876, 14928
 14929, 14930, 15105, 15198, 15857, 16416, 16672, 16794, 16802
** Section: fledspar
*Solid Section, elset=_PickedSet6_#2, material=fledspar
1.,
*End Part
**  
**
** ASSEMBLY
**
*Assembly, name=Assembly
**  
*Instance, name=merged-1, part=merged
*End Instance
**  
*Nset, nset=_PickedSet64, internal, instance=merged-1
    1,    2,    3,    4,    5,    6,    7,    8,    9,   10,   11,   22,   23,   24,   25,   26
   27,   28,   29,   30,   31,   32,   33,   34,   35,   36,   37,   38,   39,   40,   41,   42
   43,   44,   45,   46,   47,   48,   49,   50,   51,   52,   53,   54,   55,   56,   57,   58
   59,   60,   61,   62,   63,   64,   65,   66,   67,   68,   69,   70,   71,   72,   73,   74
   75,   76,   77,   78,   79,   80,   81,   82,   83,   84,   85,   86,   87,   88,   89,   90
   91,   92,   93,   94,   95,   96,   97,   98,   99,  100,  101,  102,  103,  104,  105,  106
  107,  108,  109,  110,  111,  112,  113,  114,  115,  116,  117,  118,  119,  120,  121,  122
  123,  124,  125,  126,  127,  128,  129,  130,  131,  132,  133,  134,  135,  136,  137,  138
  199,  200,  201,  202,  203,  204,  205,  206,  207,  208,  209,  210,  211,  212,  213,  214
  215,  216,  217,  218,  219,  220,  221,  222,  223,  224,  225,  226,  227,  228,  229,  230
  231,  232,  233,  234,  235,  236,  237,  238,  239,  240,  241,  242,  243,  244,  245,  246
  247,  248,  249,  250,  251,  252,  253,  254,  255,  256,  257,  258,  259,  260,  261,  262
  263,  264,  265,  266,  267,  268,  269,  270,  271,  272,  273,  274,  275,  276,  277,  278
  279,  280,  281,  282,  283,  284,  285,  286,  287,  288,  289,  290,  291,  292,  293,  294
  295,  296,  297,  298,  299,  300,  301,  302,  303,  304,  305,  306,  307,  308,  309,  310
  311,  312,  313,  314,  315,  316,  317,  318,  319,  320,  321,  322,  323,  324,  325,  326
  327,  328,  329,  330,  331,  332,  333,  334,  335,  336,  337,  338,  339,  340,  341,  342
  343,  344,  345,  346,  347,  348,  349,  350,  351,  352,  353,  354,  355,  356,  357,  358
  359,  360,  361,  362,  363,  364,  365,  366,  367,  368,  369,  370,  371,  372,  373,  374
  375,  376,  377,  378,  379,  380,  381,  382,  383,  384,  385,  386,  387,  388,  389,  390
** ... 88 like lines cut
*Elset, elset=_PickedSet64, internal, instance=merged-1, generate
    1,  8056,     1
*Nset, nset=_PickedSet65, internal, instance=merged-1
   13,   14,   15,   17,   18,   19,   21,  144,  145,  146,  147,  148,  149,  150,  151,  152
  153,  159,  160,  161,  162,  163,  164,  165,  166,  167,  168,  169,  170,  171,  172,  173
  174,  175,  176,  177,  178,  184,  185,  186,  187,  188,  189,  190,  191,  192,  193,  194
  195,  196,  197,  198,  911,  912,  913,  914,  915,  916,  917,  918,  919,  920,  921,  922
  923,  924,  925,  926,  927,  928,  929,  930,  931,  932,  933,  934,  935, 1160, 1161, 1162
 1163, 1164, 1165, 1166, 1167, 1168, 1169, 1170, 1171, 1172, 1173, 1174, 1175, 1176, 1177, 1178
 1179, 1180, 1181, 1182, 1183, 1184, 1185, 1186, 1187, 1188, 1189, 1190, 1191, 1192, 1193, 1194
 1195, 1196, 1197, 1198, 1199, 1200, 1201, 1202, 1203, 1204, 1205, 1206, 1207, 1208, 1209
*Elset, elset=_PickedSet65, internal, instance=merged-1
  8136,  8148,  8193,  8265,  8430,  8468,  8545,  8600,  8680,  8732,  8828,  8830,  8909,  9068,  9235,  9306
  9349,  9430,  9484,  9497,  9635,  9650,  9652,  9662,  9669,  9703,  9711,  9722,  9727,  9778,  9900,  9903
  9907,  9957, 10202, 10214, 10246, 10256, 10300, 10489, 10575, 10606, 10801, 10965, 11512, 11718, 12211, 12301
 12315, 12322, 12683, 12686, 12700, 12714, 12735, 12744, 12781, 12791, 12797, 12809, 12811, 12816, 12820, 12832
 12838, 12842, 12844, 12845, 12846, 12848, 12849, 12868, 12876, 12880, 12885, 12892, 12896, 12897, 12899, 12902
 12907, 12909, 12912, 12913, 12915, 12923, 12930, 12933, 12943, 12964, 12965, 12972, 12983, 12988, 12989, 12997
 12999, 13001, 13002, 13003, 13032, 13043, 13046, 13054, 13055, 13063, 13073, 13080, 13081, 13250, 13257, 13258
 13261, 13266, 13269, 13270, 13296, 13400, 13404, 13410, 13534, 13558, 13559, 13595, 13597, 13598, 13826, 13837
 13854, 14070, 14119, 14170, 14182, 14206, 14310, 14420, 14454, 14468, 14524, 14586, 14597, 14613, 14620, 14632
 14634, 14638, 14646, 14649, 14660, 14661, 14663, 14666, 14668, 14669, 14683, 14684, 14691, 14711, 14718, 14721
 14725, 14728, 14736, 14738, 14739, 14745, 14755, 14756, 14757, 14763, 14764, 14769, 14771, 14776, 14779, 14784
 14789, 14799, 14802, 14805, 14806, 14822, 14824, 14831, 14841, 14887, 15016, 15056, 15057, 15060, 15078, 15085
 15149, 15151, 15182, 15206, 15234, 15301, 15302, 15638, 15639, 15780, 15809, 15810, 15913, 15914, 16243, 16244
 16452, 16454, 16548, 16549, 16554, 16611, 16614, 16719
*Nset, nset=_PickedSet66, internal, instance=merged-1
   1,   4,   8,   9,  10,  11,  12,  13,  14,  15,  16,  52,  53,  54,  55,  56
  57,  58,  59,  60,  61, 101, 102, 103, 104, 105, 106, 107, 108, 109, 110, 111
 112, 113, 114, 115, 116, 117, 118, 119, 120, 121, 122, 123, 124, 125, 126, 127
 128, 139, 140, 141, 142, 143, 144, 145, 146, 147, 148, 149, 150, 151, 152, 153
 154, 155, 156, 157, 158, 499, 500, 501, 502, 503, 504, 505, 506, 507, 508, 509
 510, 511, 512, 513, 514, 515, 516, 517, 518, 519, 520, 521, 522, 523, 524, 525
 526, 527, 528, 529, 530, 531, 532, 533, 534, 535, 536, 537, 538, 539, 540, 541
 542, 543, 544, 545, 546, 547, 548, 549, 550, 551, 552, 553, 554, 555, 556, 557
 558, 559, 560, 561, 562, 563, 564, 565, 566, 567, 568, 569, 570, 571, 572, 573
 574, 575, 576, 577, 578, 579, 580, 581, 582, 583, 584, 585, 586, 587, 588, 589
 590, 591, 592, 593, 594, 595, 596, 597, 598, 799, 800, 801, 802, 803, 804, 805
 806, 807, 808, 809, 810, 811, 812, 813, 814, 815, 816, 817, 818, 819, 820, 821
 822, 823, 824, 825, 826, 827, 828, 829, 830, 831, 832, 833, 834, 835, 836, 837
 838, 839, 840, 841, 842, 843, 844, 845, 846, 847, 848, 849, 850, 851, 852, 853
 854, 855, 856, 857, 858, 859, 860, 861, 862, 863, 864, 865, 866, 867, 868, 869
 870, 871, 872, 873, 874, 875, 876, 877, 878, 879, 880, 881, 882, 883, 884, 885
 886, 887, 888, 889, 890, 891, 892, 893, 894, 895, 896, 897, 898, 899, 900, 901
 902, 903, 904, 905, 906, 907, 908, 909, 910
*Elset, elset=_PickedSet66, internal, instance=merged-1
   114,   178,   184,   343,   360,   382,   466,   791,  1151,  1369,  1656,  1663,  1686,  1708,  1735,  1739
  1859,  1926,  1960,  1965,  2041,  2088,  2092,  2098,  2103,  2125,  2240,  2755,  2803,  2821,  3239,  3304
  3348,  3404,  3469,  3473,  3474,  3531,  3614,  3671,  3737,  3788,  3789,  3854,  3912,  3919,  3936,  3939
  3944,  3948,  3952,  3959,  3961,  3963,  3966,  3976,  3981,  3988,  3997,  3999,  4003,  4013,  4018,  4020
  4024,  4026,  4035,  4036,  4037,  4039,  4040,  4047,  4048,  4053,  4067,  4082,  4083,  4095,  4097,  4100
  4104,  4108,  4110,  4113,  4119,  4122,  4124,  4133,  4135,  4137,  4145,  4150,  4157,  4165,  4166,  4174
  4185,  4197,  4200,  4203,  4205,  4211,  4224,  4225,  4231,  4234,  4236,  4244,  4246,  4247,  4250,  4252
  4253,  4262,  4264,  4282,  4291,  4298,  4310,  4316,  4318,  4319,  4349,  4353,  4355,  4356,  4357,  4359
  4364,  4365,  4373,  4374,  4377,  4383,  4387,  4389,  4390,  4393,  4397,  4408,  4413,  4424,  4437,  4441
  4445,  4454,  4469,  4470,  4471,  4473,  4486,  4496,  4497,  4518,  4526,  4533,  4541,  4553,  4558,  4559
  4564,  4584,  4597,  4599,  4601,  4606,  4609,  4611,  4619,  4622,  4624,  4632,  4638,  4641,  4642,  4653
  4655,  4656,  4665,  4674,  4685,  4692,  4711,  4757,  4760,  4762,  4851,  4914,  5079,  5086,  5132,  5149
  5163,  5168,  5222,  5227,  5315,  5395,  5410,  5424,  5437,  5439,  5451,  5480,  5481,  5483,  5494,  5515
  5527,  5530,  5577,  5592,  5593,  5594,  5713,  5799,  5839,  5874,  5876,  6061,  6130,  6169,  6171,  6258
  6360,  6492,  6565,  6859,  6920,  7017,  7098,  7099,  7124,  7129,  7173,  7456,  7457,  7491,  7668,  7679
  7772,  7931,  8164,  8294,  8308,  8445,  8538,  8943,  9129,  9225,  9265,  9281,  9362,  9448,  9464,  9626
  9701,  9725,  9739,  9742,  9748,  9793,  9795,  9796,  9843,  9874,  9881,  9898,  9915,  9980,  9992, 10056
 10095, 10145, 10152, 10163, 10166, 10221, 10262, 10314, 10339, 10382, 10386, 10455, 10513, 11251, 11254, 11261
 11281, 11283, 11286, 11294, 11299, 11313, 11317, 11324, 11345, 11348, 11378, 11413, 11473, 11483, 11492, 11493
 11524, 11549, 11586, 11781, 11878, 11892, 11923, 11958, 11972, 11982, 11983, 11986, 11990, 12011, 12012, 12028
** ... 12 like lines cut
*Nset, nset=_PickedSet67, internal, instance=merged-1
    5,    6,    7,    9,   10,   11,   12,   13,   19,   20,   21,   72,   73,   74,   75,   76
   77,   78,   79,   80,   81,   92,   93,   94,   95,   96,   97,   98,   99,  100,  110,  111
  112,  113,  114,  115,  116,  117,  118,  129,  130,  131,  132,  133,  134,  135,  136,  137
  138,  139,  140,  141,  142,  143,  179,  180,  181,  182,  183,  184,  185,  186,  187,  188
  189,  190,  191,  192,  193,  699,  700,  701,  702,  703,  704,  705,  706,  707,  708,  709
  710,  711,  712,  713,  714,  715,  716,  717,  718,  719,  720,  721,  722,  723,  724,  725
  726,  727,  728,  729,  730,  731,  732,  733,  734,  735,  736,  737,  738,  739,  740,  741
  742,  743,  744,  745,  746,  747,  748,  749,  750,  751,  752,  753,  754,  755,  756,  757
  758,  759,  760,  761,  762,  763,  764,  765,  766,  767,  768,  769,  770,  771,  772,  773
  774,  775,  776,  777,  778,  779,  780,  781,  782,  783,  784,  785,  786,  787,  788,  789
  790,  791,  792,  793,  794,  795,  796,  797,  798, 1046, 1047, 1048, 1049, 1050, 1051, 1052
 1053, 1054, 1055, 1056, 1057, 1058, 1059, 1060, 1061, 1062, 1063, 1064, 1065, 1066, 1067, 1068
 1069, 1070, 1071, 1072, 1073, 1074, 1075, 1076, 1077, 1078, 1079, 1080, 1081, 1082, 1083, 1084
 1085, 1086, 1087, 1088, 1089, 1090, 1091, 1092, 1093, 1094, 1095, 1096, 1097, 1098, 1099, 1100
 1101, 1102, 1103, 1104, 1105, 1106, 1107, 1108, 1109, 1110, 1111, 1112, 1113, 1114, 1115, 1116
 1117, 1118, 1119, 1120, 1121, 1122, 1123, 1124, 1125, 1126, 1127, 1128, 1129, 1130, 1131, 1132
 1133, 1134, 1135, 1136, 1137, 1138, 1139, 1140, 1141, 1142, 1143, 1144, 1145, 1146, 1147, 1148
 1149, 1150, 1151, 1152, 1153, 1154, 1155, 1156, 1157, 1158, 1159
*Elset, elset=_PickedSet67, internal, instance=merged-1
    45,   408,   495,   544,   807,  1084,  1131,  1187,  1229,  1250,  1357,  1372,  1642,  1679,  1995,  2378
  2435,  2592,  2661,  2759,  2763,  2766,  2779,  2801,  2941,  2958,  3081,  3089,  3095,  3182,  3484,  3510
  3628,  3645,  3691,  3692,  3701,  3709,  3796,  3807,  3843,  3844,  3851,  3861,  3868,  3888,  4151,  4158
  4273,  4287,  4290,  4297,  4314,  4398,  4409,  4438,  4444,  4457,  4458,  4500,  4522,  4524,  4529,  4564
  4566,  4646,  4656,  4681,  4700,  4705,  4728,  4731,  4733,  4740,  4772,  4784,  4804,  4840,  4860,  4871
  4909,  4912,  4920,  4923,  4939,  4981,  4982,  4991,  5059,  5060,  5067,  5071,  5118,  5127,  5139,  5140
  5141,  5150,  5188,  5189,  5191,  5229,  5236,  5254,  5266,  5271,  5282,  5291,  5292,  5294,  5326,  5335
  5342,  5349,  5351,  5359,  5360,  5365,  5367,  5377,  5378,  5379,  5389,  5391,  5392,  5412,  5418,  5419
  5427,  5428,  5440,  5441,  5442,  5447,  5448,  5450,  5456,  5458,  5463,  5475,  5478,  5485,  5495,  5503
  5508,  5509,  5521,  5525,  5555,  5559,  5565,  5566,  5570,  5585,  5587,  5588,  5605,  5607,  5611,  5612
  5622,  5626,  5628,  5630,  5635,  5636,  5644,  5645,  5646,  5648,  5650,  5651,  5658,  5661,  5662,  5664
  5669,  5675,  5676,  5681,  5684,  5699,  5709,  5717,  5720,  5724,  5725,  5733,  5734,  5735,  5750,  5756
  5760,  5763,  5774,  5878,  5881,  5882,  5915,  5920,  5988,  6003,  6023,  6024,  6033,  6052,  6055,  6100
  6102,  6136,  6140,  6200,  6203,  6287,  6384,  6470,  6473,  6474,  6518,  6532,  6562,  6568,  6569,  6715
  6719,  6724,  6761,  6772,  6805,  6806,  6982,  7062,  7155,  7157,  7160,  7162,  7188,  7315,  7433,  7896
  7955,  7956,  8296,  8309,  8413,  8461,  8522,  8934,  9338,  9390,  9657,  9682,  9718,  9864, 10332, 10516
 10518, 10529, 10530, 10560, 10574, 10582, 10591, 10612, 10622, 10640, 10725, 10750, 10809, 10850, 10857, 10859
 10878, 10895, 10919, 10946, 11018, 11019, 11023, 11104, 11123, 11132, 11240, 11369, 11407, 11410, 11456, 11587
 11591, 11613, 11624, 11660, 11679, 11697, 11742, 11750, 11751, 11753, 11784, 11797, 11859, 11860, 11896, 11960
 12109, 12156, 12193, 12199, 12223, 12328, 12449, 12454, 12495, 12587, 12615, 12622, 12630, 12632, 12653, 12684
** ... 13 like lines cut
*Nset, nset=_PickedSet68, internal, instance=merged-1
    3,    4,    6,    7,    8,    9,   15,   16,   18,   19,   20,   42,   43,   44,   45,   46
   47,   48,   49,   50,   51,   82,   83,   84,   85,   86,   87,   88,   89,   90,   91,   92
   93,   94,   95,   96,   97,   98,   99,  100,  101,  102,  103,  104,  105,  106,  107,  108
  109,  154,  155,  156,  157,  158,  169,  170,  171,  172,  173,  174,  175,  176,  177,  178
  179,  180,  181,  182,  183,  399,  400,  401,  402,  403,  404,  405,  406,  407,  408,  409
  410,  411,  412,  413,  414,  415,  416,  417,  418,  419,  420,  421,  422,  423,  424,  425
  426,  427,  428,  429,  430,  431,  432,  433,  434,  435,  436,  437,  438,  439,  440,  441
  442,  443,  444,  445,  446,  447,  448,  449,  450,  451,  452,  453,  454,  455,  456,  457
  458,  459,  460,  461,  462,  463,  464,  465,  466,  467,  468,  469,  470,  471,  472,  473
  474,  475,  476,  477,  478,  479,  480,  481,  482,  483,  484,  485,  486,  487,  488,  489
  490,  491,  492,  493,  494,  495,  496,  497,  498,  936,  937,  938,  939,  940,  941,  942
  943,  944,  945,  946,  947,  948,  949,  950,  951,  952,  953,  954,  955,  956,  957,  958
  959,  960,  961,  962,  963,  964,  965,  966,  967,  968,  969,  970,  971,  972,  973,  974
  975,  976,  977,  978,  979,  980,  981,  982,  983,  984,  985,  986,  987,  988,  989,  990
  991,  992,  993,  994,  995,  996,  997,  998,  999, 1000, 1001, 1002, 1003, 1004, 1005, 1006
 1007, 1008, 1009, 1010, 1011, 1012, 1013, 1014, 1015, 1016, 1017, 1018, 1019, 1020, 1021, 1022
 1023, 1024, 1025, 1026, 1027, 1028, 1029, 1030, 1031, 1032, 1033, 1034, 1035, 1036, 1037, 1038
 1039, 1040, 1041, 1042, 1043, 1044, 1045
*Elset, elset=_PickedSet68, internal, instance=merged-1
    29,    72,   166,   192,   652,  1152,  1247,  1284,  1456,  1624,  1632,  1678,  1738,  1758,  1911,  1920
  2018,  2038,  2107,  2158,  2224,  2230,  2244,  2248,  2291,  2322,  2345,  2380,  2422,  2442,  2795,  2870
  2881,  2926,  2945,  2970,  2978,  2996,  3008,  3010,  3018,  3025,  3033,  3051,  3067,  3118,  3126,  3131
  3132,  3153,  3155,  3172,  3196,  3203,  3213,  3226,  3242,  3247,  3262,  3277,  3282,  3285,  3288,  3290
  3292,  3297,  3298,  3322,  3341,  3343,  3347,  3348,  3352,  3354,  3365,  3371,  3375,  3380,  3386,  3389
  3390,  3392,  3406,  3417,  3419,  3421,  3429,  3440,  3444,  3461,  3463,  3465,  3473,  3480,  3486,  3494
  3496,  3498,  3499,  3503,  3509,  3513,  3520,  3533,  3557,  3558,  3559,  3573,  3576,  3578,  3593,  3599
  3601,  3602,  3607,  3611,  3624,  3642,  3646,  3649,  3665,  3667,  3668,  3670,  3674,  3679,  3683,  3688
  3700,  3710,  3711,  3715,  3716,  3722,  3726,  3752,  3753,  3763,  3764,  3769,  3771,  3777,  3779,  3782
  3785,  3798,  3799,  3804,  3806,  3814,  3821,  3829,  3833,  3845,  3853,  3866,  3871,  3895,  3964,  3969
  4021,  4027,  4028,  4065,  4074,  4080,  4086,  4092,  4099,  4106,  4153,  4237,  4270,  4285,  4322,  4332
  4334,  4342,  4660,  4759,  4771,  5049,  5233,  5240,  5311,  5321,  5338,  5536,  5578,  5606,  5620,  5649
  5652,  5682,  5694,  5701,  5704,  5705,  5706,  5708,  5744,  5753,  5777,  5802,  5907,  5911,  5912,  5948
  5950,  5952,  5954,  5955,  5961,  6104,  6105,  6107,  6108,  6128,  6149,  6150,  6232,  6251,  6271,  6275
  6373,  6632,  6654,  6844,  6845,  7037,  7043,  7048,  7050,  7156,  7269,  7473,  7698,  7798,  7800,  7983
  7990,  8012,  8382,  8518,  8598,  8974,  9224,  9540,  9661,  9665,  9690,  9731,  9732,  9741,  9781,  9883
  9971, 10050, 10079, 10127, 10255, 10256, 10302, 10303, 10311, 10360, 10369, 10384, 10405, 10411, 10412, 10424
 10454, 10460, 10466, 10476, 10547, 10576, 10606, 10608, 10651, 10677, 10698, 10700, 10804, 10873, 10908, 11008
 11029, 11048, 11084, 11123, 11124, 11132, 11136, 11141, 11153, 11154, 11163, 11190, 11221, 11230, 11237, 11922
 12009, 12049, 12050, 12081, 12259, 12263, 12272, 12315, 12331, 12400, 12420, 12470, 12472, 12477, 12598, 12676
** ... 12 like lines cut
*Nset, nset=_PickedSet69, internal, instance=merged-1, generate
    1,  3266,     1
*Elset, elset=_PickedSet69, internal, instance=merged-1, generate
     1,  16903,      1
*End Assembly
** 
** MATERIALS
** 
*Material, name=fledspar
*Conductivity
 1.46,
*Density
 2.703e-09,
*Elastic
87020., 0.29
*Expansion
  3.6e-06,    25.
  4.6e-06, 119.85
 5.19e-06, 219.85
 5.59e-06, 319.85
 5.89e-06, 419.85
 6.14e-06, 519.85
 6.37e-06, 619.85
 6.58e-06, 719.85
 6.78e-06, 819.85
 6.97e-06, 919.85
 7.12e-06,  1000.
*Specific Heat
 860., 50.
 945.,200.
1054.,400.
1090.,500.
1100.,600.
*Material, name=quartz
*Conductivity
  8.,  0.
 6.5,100.
 5.5,200.
 4.5,300.
  4.,400.
 3.8,500.
 3.7,550.
 3.5,575.
 3.5,580.
 3.8,600.
 3.9,700.
  4.,800.
*Density
 2.65e-09,
*Elastic
100000.,  0.09,    0.
 95000., 0.085,  100.
 90000.,  0.08,  200.
 85000.,  0.05,  300.
 83000.,    0.,  400.
 80000., -0.05,  500.
 75000.,  -0.1,  550.
 60000.,  -0.2,  575.
 80000.,  -0.3,  580.
 95000.,   0.2,  600.
100000.,  0.25,  700.
105000.,  0.25,  800.
*Expansion
    1e-05,  0.
 1.25e-05,100.
 1.26e-05,200.
 1.27e-05,300.
 1.28e-05,400.
  1.5e-05,500.
 1.75e-05,550.
    2e-05,575.
  2.5e-05,580.
 2.25e-05,600.
  2.1e-05,700.
    2e-05,800.
*Specific Heat
 700.,  0.
 810.,100.
 910.,200.
1005.,300.
1100.,400.
1190.,500.
1250.,550.
1400.,575.
1050.,580.
1070.,600.
1080.,700.
1090.,800.
** 
** BOUNDARY CONDITIONS
** 
** Name: BC-1 Type: Symmetry/Antisymmetry/Encastre
*Boundary
_PickedSet65, ENCASTRE
** Name: x Type: Symmetry/Antisymmetry/Encastre
*Boundary
_PickedSet66, XSYMM
** Name: y Type: Symmetry/Antisymmetry/Encastre
*Boundary
_PickedSet67, YSYMM
** Name: z Type: Symmetry/Antisymmetry/Encastre
*Boundary
_PickedSet68, ZSYMM
** 
** PREDEFINED FIELDS
** 
** Name: initial_temp   Type: Temperature
*Initial Conditions, type=TEMPERATURE
_PickedSet69, 20.
** ----------------------------------------------------------------
** 
** STEP: heat_up
** 
*Step, name=heat_up, nlgeom=NO
*Coupled Temperature-displacement, creep=none
0.2, 1., 
** 
** LOADS
** 
** Name: Load-1   Type: Body heat flux
*Dflux
_PickedSet64, BFNU, 100000.
** 
** OUTPUT REQUESTS
** 
*Restart, write, frequency=0
** 
** FIELD OUTPUT: F-Output-1
** 
*Output, field
*Node Output
CF, NT, RF, RFL, U
*Element Output, directions=YES
HFL, LE, MISES, PE, PEEQ, PEMAG, S
*Contact Output
CDISP, CSTRESS
** 
** HISTORY OUTPUT: H-Output-1
** 
*Output, history, variable=PRESELECT
*End Step
