*Heading
** Job name: umat_test Model name: test_cons_model
** Generated by: Abaqus/CAE 2019
*Preprint, echo=NO, model=NO, history=NO, contact=NO
**
** PARTS
**
*Part, name=cube
*Node
      1,          -5.,          -5.,          20.
      2,          -5.,          -3.,          20.
      3,          -5.,          -1.,          20.
      4,          -5.,           1.,          20.
      5,          -5.,           3.,          20.
      6,          -5.,           5.,          20.
      7,          -5.,          -5.,          18.
      8,          -5.,          -3.,          18.
      9,          -5.,          -1.,          18.
     10,          -5.,           1.,          18.
     11,          -5.,           3.,          18.
     12,          -5.,           5.,          18.
     13,          -5.,          -5.,          16.
     14,          -5.,          -3.,          16.
     15,          -5.,          -1.,          16.
     16,          -5.,           1.,          16.
     17,          -5.,           3.,          16.
     18,          -5.,           5.,          16.
     19,          -5.,          -5.,          14.
     20,          -5.,          -3.,          14.
** ... 376 like lines cut
*Element, type=C3D8R
  1,  67,  68,  74,  73,   1,   2,   8,   7
  2,  68,  69,  75,  74,   2,   3,   9,   8
  3,  69,  70,  76,  75,   3,   4,  10,   9
  4,  70,  71,  77,  76,   4,   5,  11,  10
  5,  71,  72,  78,  77,   5,   6,  12,  11
  6,  73,  74,  80,  79,   7,   8,  14,  13
  7,  74,  75,  81,  80,   8,   9,  15,  14
  8,  75,  76,  82,  81,   9,  10,  16,  15
  9,  76,  77,  83,  82,  10,  11,  17,  16
 10,  77,  78,  84,  83,  11,  12,  18,  17
 11,  79,  80,  86,  85,  13,  14,  20,  19
 12,  80,  81,  87,  86,  14,  15,  21,  20
 13,  81,  82,  88,  87,  15,  16,  22,  21
 14,  82,  83,  89,  88,  16,  17,  23,  22
 15,  83,  84,  90,  89,  17,  18,  24,  23
 16,  85,  86,  92,  91,  19,  20,  26,  25
 17,  86,  87,  93,  92,  20,  21,  27,  26
 18,  87,  88,  94,  93,  21,  22,  28,  27
 19,  88,  89,  95,  94,  22,  23,  29,  28
 20,  89,  90,  96,  95,  23,  24,  30,  29
** ... 230 like lines cut
*Nset, nset=_PickedSet5, internal, generate
   1,  396,    1
*Elset, elset=_PickedSet5, internal, generate
   1,  250,    1
** Section: umat
*Solid Section, elset=_PickedSet5, material=umat
,
*End Part
**  
**
** ASSEMBLY
**
*Assembly, name=Assembly
**  
*Instance, name=cube-1, part=cube
*End Instance
**  
*Nset, nset=_PickedSet4, internal, instance=cube-1
   1,   2,   3,   4,   5,   6,  67,  68,  69,  70,  71,  72, 133, 134, 135, 136
 137, 138, 199, 200, 201, 202, 203, 204, 265, 266, 267, 268, 269, 270, 331, 332
 333, 334, 335, 336
*Elset, elset=_PickedSet4, internal, instance=cube-1
   1,   2,   3,   4,   5,  51,  52,  53,  54,  55, 101, 102, 103, 104, 105, 151
 152, 153, 154, 155, 201, 202, 203, 204, 205
*Elset, elset=__PickedSurf6_S5, internal, instance=cube-1
  46,  47,  48,  49,  50,  96,  97,  98,  99, 100, 146, 147, 148, 149, 150, 196
 197, 198, 199, 200, 246, 247, 248, 249, 250
*Surface, type=ELEMENT, name=_PickedSurf6, internal
__PickedSurf6_S5, S5
*End Assembly
** 
** MATERIALS
** 
*Material, name=feldspar
*Conductivity
 1.46,
*Density
 2.703e-09,
*Elastic
87020., 0.29
*Expansion
  3.6e-06,    25.
  4.6e-06, 119.85
 5.19e-06, 219.85
 5.59e-06, 319.85
 5.89e-06, 419.85
 6.14e-06, 519.85
 6.37e-06, 619.85
 6.58e-06, 719.85
 6.78e-06, 819.85
 6.97e-06, 919.85
 7.12e-06,  1000.
*Specific Heat
 860., 50.
 945.,200.
1054.,400.
1090.,500.
*Material, name=feldspar_morh_coulomb
*Conductivity
 1.46,
*Density
 2.703e-09,
*Elastic
87020., 0.29
*Expansion
  3.6e-06,    25.
  4.6e-06, 119.85
 5.19e-06, 219.85
 5.59e-06, 319.85
 5.89e-06, 419.85
 6.14e-06, 519.85
 6.37e-06, 619.85
 6.58e-06, 719.85
 6.78e-06, 819.85
 6.97e-06, 919.85
 7.12e-06,  1000.
*Specific Heat
 860., 50.
 945.,200.
1054.,400.
1090.,500.
*Mohr Coulomb
 43.53,46.
*Mohr Coulomb Hardening
100.,0.
100.,1.
*Material, name=umat
*Density
7850.,
*User Material, constants=2
 2.1e+11, 0.3
** 
** BOUNDARY CONDITIONS
** 
** Name: BC-1 Type: Symmetry/Antisymmetry/Encastre
*Boundary
_PickedSet4, ENCASTRE
** ----------------------------------------------------------------
** 
** STEP: Step-1
** 
*Step, name=Step-1, nlgeom=NO
*Static
1., 1., 1e-05, 1.
** 
** LOADS
** 
** Name: pressure   Type: Pressure
*Dsload
_PickedSurf6, P, 10.
** 
** OUTPUT REQUESTS
** 
*Restart, write, frequency=0
** 
** FIELD OUTPUT: F-Output-1
** 
*Output, field, variable=PRESELECT
** 
** HISTORY OUTPUT: H-Output-1
** 
*Output, history, variable=PRESELECT
*End Step
